<?xml version="1.0" encoding="UTF-8"?>
<additional xmlns:xsi="http://www.w3.org/2001/XMLSchema-instance" xsi:noNamespaceSchemaLocation="http://sumo.dlr.de/xsd/additional_file.xsd">

	<vType id="gen_probe" vClass="passenger" 
			 length="4.2" maxSpeed="22.22" width="2.1" 
			 minGap="2" color="0,0,1" guiShape="passenger/sedan"
 			 sigma= "0.23424849961615712"/>

	<flow id="gen_probe_entire" begin="0" end="18000"  period="120" from="112446385#5" to="455043449"  type="gen_probe"  departLane="free"  departSpeed="max" />
</additional>