<?xml version="1.0" encoding="UTF-8"?>

<!-- generated on 2022-08-02 18:21:33 by Eclipse SUMO netedit Version 1.13.0
<configuration xmlns:xsi="http://www.w3.org/2001/XMLSchema-instance" xsi:noNamespaceSchemaLocation="http://sumo.dlr.de/xsd/netconvertConfiguration.xsd">

    <input>
        <sumo-net-file value="E:\OneDrive\SUMO\Coding\Coding\bpm_shared_05102021\2_real_network_simulations\2_5_galle_road_6_10_data_collection\network\colombo_galleroad_edges_renamed_60kmph_01082022.net.xml"/>
    </input>

    <output>
        <output-file value="E:\OneDrive\SUMO\Coding\Coding\bpm_shared_05102021\2_real_network_simulations\2_5_galle_road_6_10_data_collection\network\colombo_galleroad_edges_renamed_60kmph_01082022.net.xml"/>
        <output.street-names value="true"/>
    </output>

    <processing>
        <geometry.min-radius.fix.railways value="false"/>
        <geometry.max-grade.fix value="false"/>
        <offset.disable-normalization value="true"/>
        <lefthand value="true"/>
    </processing>

    <junctions>
        <no-turnarounds value="true"/>
        <junctions.corner-detail value="5"/>
        <junctions.limit-turn-speed value="5.5"/>
        <rectangular-lane-cut value="false"/>
    </junctions>

    <pedestrian>
        <walkingareas value="false"/>
    </pedestrian>

    <report>
        <aggregate-warnings value="5"/>
    </report>

</configuration>
-->

<net version="1.9" junctionCornerDetail="5" lefthand="true" limitTurnSpeed="5.50" xmlns:xsi="http://www.w3.org/2001/XMLSchema-instance" xsi:noNamespaceSchemaLocation="http://sumo.dlr.de/xsd/net_file.xsd">

    <location netOffset="-370117.39,-743706.39" convBoundary="2660.98,5169.65,7525.57,20819.36" origBoundary="79.824321,6.727010,80.179274,7.028193" projParameter="+proj=utm +zone=44 +ellps=WGS84 +datum=WGS84 +units=m +no_defs"/>

    <type id="highway.bridleway" priority="1" numLanes="1" speed="2.78" allow="pedestrian" oneway="1" width="2.00"/>
    <type id="highway.bus_guideway" priority="1" numLanes="1" speed="27.78" allow="bus" oneway="1"/>
    <type id="highway.cycleway" priority="1" numLanes="1" speed="8.33" allow="bicycle" oneway="1" width="1.00"/>
    <type id="highway.footway" priority="1" numLanes="1" speed="2.78" allow="pedestrian" oneway="1" width="2.00"/>
    <type id="highway.ford" priority="1" numLanes="1" speed="2.78" allow="army" oneway="1"/>
    <type id="highway.living_street" priority="2" numLanes="1" speed="2.78" disallow="tram rail_urban rail rail_electric rail_fast ship" oneway="1"/>
    <type id="highway.motorway" priority="14" numLanes="2" speed="39.44" allow="private emergency authority army vip passenger hov taxi bus coach delivery truck trailer motorcycle evehicle custom1 custom2" oneway="1"/>
    <type id="highway.motorway_link" priority="9" numLanes="1" speed="22.22" allow="private emergency authority army vip passenger hov taxi bus coach delivery truck trailer motorcycle evehicle custom1 custom2" oneway="1"/>
    <type id="highway.path" priority="1" numLanes="1" speed="2.78" allow="pedestrian bicycle" oneway="1" width="2.00"/>
    <type id="highway.pedestrian" priority="1" numLanes="1" speed="2.78" allow="pedestrian" oneway="1" width="2.00"/>
    <type id="highway.primary" priority="12" numLanes="2" speed="27.78" disallow="tram rail_urban rail rail_electric rail_fast ship" oneway="1"/>
    <type id="highway.primary_link" priority="7" numLanes="1" speed="22.22" disallow="tram rail_urban rail rail_electric rail_fast ship" oneway="1"/>
    <type id="highway.raceway" priority="15" numLanes="2" speed="83.33" allow="vip" oneway="1"/>
    <type id="highway.residential" priority="3" numLanes="1" speed="13.89" disallow="tram rail_urban rail rail_electric rail_fast ship" oneway="1"/>
    <type id="highway.secondary" priority="11" numLanes="1" speed="27.78" disallow="tram rail_urban rail rail_electric rail_fast ship" oneway="1"/>
    <type id="highway.secondary_link" priority="6" numLanes="1" speed="22.22" disallow="tram rail_urban rail rail_electric rail_fast ship" oneway="1"/>
    <type id="highway.service" priority="1" numLanes="1" speed="5.56" allow="pedestrian delivery bicycle" oneway="1"/>
    <type id="highway.stairs" priority="1" numLanes="1" speed="1.39" allow="pedestrian" oneway="1" width="2.00"/>
    <type id="highway.step" priority="1" numLanes="1" speed="1.39" allow="pedestrian" oneway="1" width="2.00"/>
    <type id="highway.steps" priority="1" numLanes="1" speed="1.39" allow="pedestrian" oneway="1" width="2.00"/>
    <type id="highway.tertiary" priority="10" numLanes="1" speed="22.22" disallow="tram rail_urban rail rail_electric rail_fast ship" oneway="1"/>
    <type id="highway.tertiary_link" priority="5" numLanes="1" speed="22.22" disallow="tram rail_urban rail rail_electric rail_fast ship" oneway="1"/>
    <type id="highway.track" priority="1" numLanes="1" speed="5.56" allow="pedestrian motorcycle moped bicycle" oneway="1"/>
    <type id="highway.trunk" priority="13" numLanes="2" speed="27.78" disallow="pedestrian bicycle tram rail_urban rail rail_electric rail_fast ship" oneway="1"/>
    <type id="highway.trunk_link" priority="8" numLanes="1" speed="22.22" disallow="pedestrian bicycle tram rail_urban rail rail_electric rail_fast ship" oneway="1"/>
    <type id="highway.unclassified" priority="4" numLanes="1" speed="13.89" disallow="tram rail_urban rail rail_electric rail_fast ship" oneway="1"/>
    <type id="highway.unsurfaced" priority="1" numLanes="1" speed="8.33" disallow="tram rail_urban rail rail_electric rail_fast ship" oneway="1"/>
    <type id="railway.highspeed" priority="21" numLanes="1" speed="69.44" allow="rail_fast" oneway="1"/>
    <type id="railway.light_rail" priority="19" numLanes="1" speed="27.78" allow="rail_urban" oneway="1"/>
    <type id="railway.preserved" priority="16" numLanes="1" speed="27.78" allow="rail" oneway="1"/>
    <type id="railway.rail" priority="20" numLanes="1" speed="44.44" allow="rail" oneway="1"/>
    <type id="railway.subway" priority="18" numLanes="1" speed="27.78" allow="rail_urban" oneway="1"/>
    <type id="railway.tram" priority="17" numLanes="1" speed="13.89" allow="tram" oneway="1"/>

    <edge id=":1249801968_0" function="internal">
        <lane id=":1249801968_0_0" index="0" disallow="pedestrian bicycle tram rail_urban rail rail_electric rail_fast ship" speed="19.44" length="39.85" shape="4566.83,13954.79 4568.62,13945.94 4571.18,13935.36 4573.90,13924.82 4576.22,13916.08"/>
        <lane id=":1249801968_0_1" index="1" disallow="pedestrian bicycle tram rail_urban rail rail_electric rail_fast ship" speed="19.44" length="40.04" shape="4566.83,13954.79 4568.14,13945.81 4569.63,13934.95 4571.29,13924.13 4573.13,13915.26"/>
    </edge>
    <edge id=":1249801968_2" function="internal">
        <lane id=":1249801968_2_0" index="0" disallow="pedestrian bicycle tram rail_urban rail rail_electric rail_fast ship" speed="19.44" length="40.46" shape="4563.62,13954.61 4569.40,13914.57"/>
    </edge>
    <edge id=":1249801969_0" function="internal">
        <lane id=":1249801969_0_0" index="0" disallow="pedestrian tram rail_urban rail rail_electric rail_fast ship" speed="16.67" length="56.26" shape="4556.91,13921.43 4556.16,13933.00 4555.08,13949.46 4553.78,13965.90 4552.36,13977.37"/>
        <lane id=":1249801969_0_1" index="1" disallow="pedestrian tram rail_urban rail rail_electric rail_fast ship" speed="16.67" length="56.26" shape="4560.10,13921.67 4559.35,13933.27 4558.26,13949.82 4556.95,13966.33 4555.52,13977.85"/>
    </edge>
    <edge id=":1249801969_2" function="internal">
        <lane id=":1249801969_2_0" index="0" disallow="pedestrian bicycle tram rail_urban rail rail_electric rail_fast ship" speed="16.67" length="56.36" shape="4563.62,13922.07 4555.52,13977.85"/>
    </edge>
    <edge id=":1249807579_0" function="internal">
        <lane id=":1249807579_0_0" index="0" disallow="pedestrian bicycle tram rail_urban rail rail_electric rail_fast ship" speed="6.51" length="9.01" shape="4577.57,13390.68 4577.10,13393.10 4575.98,13394.80 4574.19,13395.77 4571.73,13396.02"/>
    </edge>
    <edge id=":1249807579_1" function="internal">
        <lane id=":1249807579_1_0" index="0" disallow="pedestrian bicycle tram rail_urban rail rail_electric rail_fast ship" speed="16.67" length="14.20" shape="4577.57,13390.68 4577.27,13404.96"/>
        <lane id=":1249807579_1_1" index="1" disallow="pedestrian bicycle tram rail_urban rail rail_electric rail_fast ship" speed="16.67" length="14.20" shape="4580.76,13390.83 4580.47,13404.94"/>
    </edge>
    <edge id=":1249807579_3" function="internal">
        <lane id=":1249807579_3_0" index="0" disallow="pedestrian bicycle tram rail_urban rail rail_electric rail_fast ship" speed="6.65" length="9.12" shape="4571.60,13399.21 4574.07,13399.66 4575.84,13400.77 4576.91,13402.54 4577.27,13404.96"/>
    </edge>
    <edge id=":1249848065_0" function="internal">
        <lane id=":1249848065_0_0" index="0" allow="bus" speed="16.67" length="17.94" shape="5441.12,10184.46 5437.77,10189.21 5434.59,10192.46 5431.57,10194.90 5428.70,10197.23"/>
    </edge>
    <edge id=":1249848065_1" function="internal">
        <lane id=":1249848065_1_0" index="0" disallow="pedestrian bicycle tram rail_urban rail rail_electric rail_fast ship" speed="16.67" length="17.94" shape="5441.12,10184.46 5432.10,10200.05"/>
        <lane id=":1249848065_1_1" index="1" disallow="pedestrian bicycle tram rail_urban rail rail_electric rail_fast ship" speed="16.67" length="17.94" shape="5443.86,10186.11 5434.86,10201.66"/>
        <lane id=":1249848065_1_2" index="2" disallow="pedestrian bicycle tram rail_urban rail rail_electric rail_fast ship" speed="16.67" length="17.94" shape="5446.61,10187.75 5437.63,10203.26"/>
        <lane id=":1249848065_1_3" index="3" disallow="pedestrian bicycle tram rail_urban rail rail_electric rail_fast ship" speed="16.67" length="17.94" shape="5449.35,10189.40 5440.40,10204.87"/>
    </edge>
    <edge id=":1249848074_0" function="internal">
        <lane id=":1249848074_0_0" index="0" disallow="tram rail_urban rail rail_electric rail_fast ship" speed="2.77" length="1.14" shape="4936.71,11201.00 4936.43,11200.80 4936.24,11200.68 4936.03,11200.58 4935.72,11200.45"/>
    </edge>
    <edge id=":1249848074_1" function="internal">
        <lane id=":1249848074_1_0" index="0" disallow="tram rail_urban rail rail_electric rail_fast ship" speed="2.77" length="0.38" shape="4934.50,11203.40 4934.60,11203.45 4934.67,11203.48 4934.74,11203.52 4934.83,11203.59"/>
    </edge>
    <edge id=":1249848114_0" function="internal">
        <lane id=":1249848114_0_0" index="0" disallow="pedestrian bicycle tram rail_urban rail rail_electric rail_fast ship" speed="6.77" length="9.36" shape="4992.55,10891.37 4991.37,10893.52 4989.73,10894.83 4987.60,10895.29 4985.00,10894.89"/>
    </edge>
    <edge id=":1249848114_1" function="internal">
        <lane id=":1249848114_1_0" index="0" disallow="pedestrian bicycle tram rail_urban rail rail_electric rail_fast ship" speed="16.67" length="14.40" shape="4992.55,10891.37 4987.67,10904.92"/>
        <lane id=":1249848114_1_1" index="1" disallow="pedestrian bicycle tram rail_urban rail rail_electric rail_fast ship" speed="16.67" length="14.40" shape="4995.56,10892.46 4990.69,10906.00"/>
    </edge>
    <edge id=":1249848114_3" function="internal">
        <lane id=":1249848114_3_0" index="0" disallow="pedestrian bicycle tram rail_urban rail rail_electric rail_fast ship" speed="19.44" length="14.37" shape="4996.71,10908.15 5001.57,10894.64"/>
        <lane id=":1249848114_3_1" index="1" disallow="pedestrian bicycle tram rail_urban rail rail_electric rail_fast ship" speed="19.44" length="14.37" shape="4993.70,10907.08 4998.57,10893.55"/>
    </edge>
    <edge id=":1249848114_5" function="internal">
        <lane id=":1249848114_5_0" index="0" disallow="pedestrian bicycle tram rail_urban rail rail_electric rail_fast ship" speed="6.38" length="9.04" shape="4984.11,10897.97 4986.39,10899.00 4987.74,10900.50 4988.17,10902.47 4987.67,10904.92"/>
    </edge>
    <edge id=":1252399033_0" function="internal">
        <lane id=":1252399033_0_0" index="0" disallow="pedestrian bicycle tram rail_urban rail rail_electric rail_fast ship" speed="16.67" length="14.14" shape="4967.49,10960.62 4962.30,10973.72"/>
        <lane id=":1252399033_0_1" index="1" disallow="pedestrian bicycle tram rail_urban rail rail_electric rail_fast ship" speed="16.67" length="14.14" shape="4970.48,10961.76 4965.25,10974.95"/>
    </edge>
    <edge id=":1252399033_2" function="internal">
        <lane id=":1252399033_2_0" index="0" disallow="pedestrian bicycle tram rail_urban rail rail_electric rail_fast ship" speed="8.54" length="3.59" shape="4970.48,10961.76 4969.85,10965.29"/>
    </edge>
    <edge id=":1252399033_8" function="internal">
        <lane id=":1252399033_8_0" index="0" disallow="pedestrian bicycle tram rail_urban rail rail_electric rail_fast ship" speed="8.54" length="13.71" shape="4969.85,10965.29 4969.75,10965.84 4970.93,10969.25 4974.03,10972.00 4979.02,10974.07"/>
    </edge>
    <edge id=":1252399033_3" function="internal">
        <lane id=":1252399033_3_0" index="0" disallow="pedestrian bicycle tram rail_urban rail rail_electric rail_fast ship" speed="6.34" length="9.04" shape="4979.92,10971.00 4977.64,10969.96 4976.31,10968.45 4975.91,10966.48 4976.46,10964.03"/>
    </edge>
    <edge id=":1252399033_4" function="internal">
        <lane id=":1252399033_4_0" index="0" disallow="pedestrian bicycle tram rail_urban rail rail_electric rail_fast ship" speed="9.02" length="16.77" shape="4979.92,10971.00 4974.65,10969.97 4970.44,10970.29 4967.31,10971.95 4965.25,10974.95"/>
    </edge>
    <edge id=":1252399033_5" function="internal">
        <lane id=":1252399033_5_0" index="0" disallow="pedestrian bicycle tram rail_urban rail rail_electric rail_fast ship" speed="6.93" length="9.51" shape="4971.16,10977.40 4972.44,10975.31 4974.17,10974.06 4976.37,10973.65 4979.02,10974.07"/>
    </edge>
    <edge id=":1252399033_6" function="internal">
        <lane id=":1252399033_6_0" index="0" disallow="pedestrian bicycle tram rail_urban rail rail_electric rail_fast ship" speed="19.44" length="14.33" shape="4971.16,10977.40 4976.46,10964.03"/>
        <lane id=":1252399033_6_1" index="1" disallow="pedestrian bicycle tram rail_urban rail rail_electric rail_fast ship" speed="19.44" length="14.33" shape="4968.21,10976.17 4973.47,10962.90"/>
    </edge>
    <edge id=":1252439109_0" function="internal">
        <lane id=":1252439109_0_0" index="0" disallow="pedestrian bicycle tram rail_urban rail rail_electric rail_fast ship" speed="16.67" length="14.67" shape="6547.10,8966.21 6540.49,8979.14"/>
        <lane id=":1252439109_0_1" index="1" disallow="pedestrian bicycle tram rail_urban rail rail_electric rail_fast ship" speed="16.67" length="14.67" shape="6549.98,8967.61 6543.30,8980.66"/>
        <lane id=":1252439109_0_2" index="2" disallow="pedestrian bicycle tram rail_urban rail rail_electric rail_fast ship" speed="16.67" length="14.67" shape="6552.86,8969.00 6546.11,8982.19"/>
    </edge>
    <edge id=":1252487409_0" function="internal">
        <lane id=":1252487409_0_0" index="0" disallow="pedestrian bicycle tram rail_urban rail rail_electric rail_fast ship" speed="6.73" length="9.30" shape="6584.68,8894.75 6583.16,8896.69 6581.33,8897.70 6579.18,8897.79 6576.72,8896.95"/>
    </edge>
    <edge id=":1252487409_1" function="internal">
        <lane id=":1252487409_1_0" index="0" disallow="pedestrian bicycle tram rail_urban rail rail_electric rail_fast ship" speed="16.67" length="14.37" shape="6584.68,8894.75 6577.63,8907.30"/>
        <lane id=":1252487409_1_1" index="1" disallow="pedestrian bicycle tram rail_urban rail rail_electric rail_fast ship" speed="16.67" length="14.37" shape="6587.46,8896.33 6580.42,8908.86"/>
        <lane id=":1252487409_1_2" index="2" disallow="pedestrian bicycle tram rail_urban rail rail_electric rail_fast ship" speed="16.67" length="14.37" shape="6590.25,8897.91 6583.22,8910.41"/>
    </edge>
    <edge id=":1252487409_4" function="internal">
        <lane id=":1252487409_4_0" index="0" disallow="pedestrian bicycle tram rail_urban rail rail_electric rail_fast ship" speed="6.41" length="9.04" shape="6575.30,8899.82 6577.36,8901.23 6578.43,8902.95 6578.52,8904.97 6577.63,8907.30"/>
    </edge>
    <edge id=":1252511599_0" function="internal">
        <lane id=":1252511599_0_0" index="0" disallow="pedestrian bicycle tram rail_urban rail rail_electric rail_fast ship" speed="6.43" length="9.03" shape="7065.32,7718.45 7062.84,7718.63 7060.93,7717.96 7059.58,7716.45 7058.79,7714.09"/>
    </edge>
    <edge id=":1252511599_1" function="internal">
        <lane id=":1252511599_1_0" index="0" disallow="pedestrian bicycle tram rail_urban rail rail_electric rail_fast ship" speed="6.65" length="9.22" shape="7061.33,7728.26 7061.26,7725.80 7062.01,7723.86 7063.60,7722.46 7066.00,7721.58"/>
    </edge>
    <edge id=":1252511599_2" function="internal">
        <lane id=":1252511599_2_0" index="0" disallow="pedestrian bicycle tram rail_urban rail rail_electric rail_fast ship" speed="19.44" length="14.39" shape="7061.33,7728.26 7058.79,7714.09"/>
        <lane id=":1252511599_2_1" index="1" disallow="pedestrian bicycle tram rail_urban rail rail_electric rail_fast ship" speed="19.44" length="14.39" shape="7058.18,7728.82 7055.64,7714.65"/>
        <lane id=":1252511599_2_2" index="2" disallow="pedestrian bicycle tram rail_urban rail rail_electric rail_fast ship" speed="19.44" length="14.39" shape="7055.03,7729.38 7052.49,7715.22"/>
    </edge>
    <edge id=":1252511630_0" function="internal">
        <lane id=":1252511630_0_0" index="0" disallow="pedestrian bicycle tram rail_urban rail rail_electric rail_fast ship" speed="8.22" length="11.09" shape="6987.04,7495.48 6983.66,7495.33 6980.96,7494.54 6978.96,7493.12 6977.65,7491.07"/>
    </edge>
    <edge id=":1252511630_1" function="internal">
        <lane id=":1252511630_1_0" index="0" disallow="pedestrian bicycle tram rail_urban rail rail_electric rail_fast ship" speed="5.88" length="9.11" shape="6983.34,7504.76 6982.66,7502.21 6983.08,7500.34 6984.59,7499.16 6987.19,7498.68"/>
    </edge>
    <edge id=":1252511630_2" function="internal">
        <lane id=":1252511630_2_0" index="0" disallow="pedestrian bicycle tram rail_urban rail rail_electric rail_fast ship" speed="19.44" length="14.87" shape="6983.34,7504.76 6977.65,7491.07"/>
        <lane id=":1252511630_2_1" index="1" disallow="pedestrian bicycle tram rail_urban rail rail_electric rail_fast ship" speed="19.44" length="14.87" shape="6980.39,7506.00 6974.69,7492.27"/>
        <lane id=":1252511630_2_2" index="2" disallow="pedestrian bicycle tram rail_urban rail rail_electric rail_fast ship" speed="19.44" length="14.87" shape="6977.43,7507.24 6971.72,7493.48"/>
    </edge>
    <edge id=":1252511646_0" function="internal">
        <lane id=":1252511646_0_0" index="0" disallow="pedestrian bicycle tram rail_urban rail rail_electric rail_fast ship" speed="6.55" length="8.97" shape="6835.44,7107.55 6833.04,7108.07 6831.03,7107.72 6829.41,7106.49 6828.19,7104.38"/>
    </edge>
    <edge id=":1252511646_1" function="internal">
        <lane id=":1252511646_1_0" index="0" disallow="pedestrian bicycle tram rail_urban rail rail_electric rail_fast ship" speed="6.51" length="8.94" shape="6833.21,7117.67 6832.73,7115.28 6833.13,7113.29 6834.40,7111.72 6836.55,7110.55"/>
    </edge>
    <edge id=":1252511646_2" function="internal">
        <lane id=":1252511646_2_0" index="0" disallow="pedestrian bicycle tram rail_urban rail rail_electric rail_fast ship" speed="19.44" length="14.07" shape="6833.21,7117.67 6828.19,7104.38"/>
        <lane id=":1252511646_2_1" index="1" disallow="pedestrian bicycle tram rail_urban rail rail_electric rail_fast ship" speed="19.44" length="14.07" shape="6830.20,7118.74 6825.22,7105.57"/>
        <lane id=":1252511646_2_2" index="2" disallow="pedestrian bicycle tram rail_urban rail rail_electric rail_fast ship" speed="19.44" length="14.07" shape="6827.18,7119.80 6822.25,7106.77"/>
    </edge>
    <edge id=":1252523305_0" function="internal">
        <lane id=":1252523305_0_0" index="0" disallow="pedestrian bicycle tram rail_urban rail rail_electric rail_fast ship" speed="6.80" length="9.41" shape="6744.59,6879.67 6741.98,6880.14 6739.83,6879.75 6738.12,6878.50 6736.88,6876.38"/>
    </edge>
    <edge id=":1252523305_1" function="internal">
        <lane id=":1252523305_1_0" index="0" disallow="pedestrian bicycle tram rail_urban rail rail_electric rail_fast ship" speed="6.36" length="9.04" shape="6742.24,6889.76 6741.65,6887.33 6742.01,6885.35 6743.31,6883.81 6745.56,6882.72"/>
    </edge>
    <edge id=":1252523305_2" function="internal">
        <lane id=":1252523305_2_0" index="0" disallow="pedestrian bicycle tram rail_urban rail rail_electric rail_fast ship" speed="19.44" length="14.41" shape="6742.24,6889.76 6736.88,6876.38"/>
        <lane id=":1252523305_2_1" index="1" disallow="pedestrian bicycle tram rail_urban rail rail_electric rail_fast ship" speed="19.44" length="14.41" shape="6739.27,6890.95 6733.91,6877.57"/>
        <lane id=":1252523305_2_2" index="2" disallow="pedestrian bicycle tram rail_urban rail rail_electric rail_fast ship" speed="19.44" length="14.41" shape="6736.30,6892.14 6730.94,6878.77"/>
    </edge>
    <edge id=":1278003928_0" function="internal">
        <lane id=":1278003928_0_0" index="0" disallow="pedestrian bicycle tram rail_urban rail rail_electric rail_fast ship" speed="7.42" length="10.08" shape="6620.36,6644.84 6623.31,6644.93 6625.63,6645.71 6627.33,6647.20 6628.41,6649.38"/>
    </edge>
    <edge id=":1278003928_1" function="internal">
        <lane id=":1278003928_1_0" index="0" disallow="pedestrian bicycle tram rail_urban rail rail_electric rail_fast ship" speed="6.16" length="9.04" shape="6624.50,6635.46 6624.78,6637.99 6624.14,6639.87 6622.58,6641.09 6620.11,6641.65"/>
    </edge>
    <edge id=":1278003928_2" function="internal">
        <lane id=":1278003928_2_0" index="0" disallow="pedestrian bicycle tram rail_urban rail rail_electric rail_fast ship" speed="16.67" length="14.34" shape="6624.50,6635.46 6628.41,6649.38"/>
        <lane id=":1278003928_2_1" index="1" disallow="pedestrian bicycle tram rail_urban rail rail_electric rail_fast ship" speed="16.67" length="14.34" shape="6627.59,6634.64 6631.47,6648.45"/>
        <lane id=":1278003928_2_2" index="2" disallow="pedestrian bicycle tram rail_urban rail rail_electric rail_fast ship" speed="16.67" length="14.34" shape="6630.68,6633.82 6634.53,6647.52"/>
    </edge>
    <edge id=":1434072698_0" function="internal">
        <lane id=":1434072698_0_0" index="0" disallow="pedestrian bicycle tram rail_urban rail rail_electric rail_fast ship" speed="16.67" length="9.38" shape="3480.67,18286.07 3477.77,18294.98"/>
        <lane id=":1434072698_0_1" index="1" disallow="pedestrian bicycle tram rail_urban rail rail_electric rail_fast ship" speed="16.67" length="9.38" shape="3483.72,18287.06 3480.81,18295.97"/>
        <lane id=":1434072698_0_2" index="2" disallow="pedestrian bicycle tram rail_urban rail rail_electric rail_fast ship" speed="16.67" length="9.38" shape="3486.76,18288.04 3483.86,18296.97"/>
        <lane id=":1434072698_0_3" index="3" disallow="pedestrian bicycle tram rail_urban rail rail_electric rail_fast ship" speed="16.67" length="9.38" shape="3489.81,18289.03 3486.90,18297.97"/>
    </edge>
    <edge id=":1434072698_4" function="internal">
        <lane id=":1434072698_4_0" index="0" disallow="pedestrian bicycle tram rail_urban rail rail_electric rail_fast ship" speed="6.03" length="7.89" shape="3489.81,18289.03 3489.15,18291.74 3489.14,18293.80 3489.77,18295.21 3491.05,18295.98"/>
    </edge>
    <edge id=":1434072698_5" function="internal">
        <lane id=":1434072698_5_0" index="0" disallow="pedestrian bicycle tram rail_urban rail rail_electric rail_fast ship" speed="6.21" length="7.83" shape="3491.89,18292.89 3490.43,18292.89 3489.11,18293.74 3487.94,18295.43 3486.90,18297.97"/>
    </edge>
    <edge id=":1434072700_0" function="internal">
        <lane id=":1434072700_0_0" index="0" disallow="pedestrian bicycle tram rail_urban rail rail_electric rail_fast ship" speed="6.75" length="9.31" shape="3593.25,17926.68 3592.19,17928.89 3590.62,17930.28 3588.54,17930.84 3585.95,17930.58"/>
    </edge>
    <edge id=":1434072700_1" function="internal">
        <lane id=":1434072700_1_0" index="0" disallow="pedestrian bicycle tram rail_urban rail rail_electric rail_fast ship" speed="16.67" length="14.28" shape="3593.25,17926.68 3589.17,17940.46"/>
        <lane id=":1434072700_1_1" index="1" disallow="pedestrian bicycle tram rail_urban rail rail_electric rail_fast ship" speed="16.67" length="14.28" shape="3596.31,17927.62 3592.25,17941.34"/>
        <lane id=":1434072700_1_2" index="2" disallow="pedestrian bicycle tram rail_urban rail rail_electric rail_fast ship" speed="16.67" length="14.28" shape="3599.37,17928.56 3595.33,17942.21"/>
        <lane id=":1434072700_1_3" index="3" disallow="pedestrian bicycle tram rail_urban rail rail_electric rail_fast ship" speed="16.67" length="14.28" shape="3602.43,17929.50 3598.40,17943.09"/>
    </edge>
    <edge id=":1434072700_5" function="internal">
        <lane id=":1434072700_5_0" index="0" disallow="pedestrian bicycle tram rail_urban rail rail_electric rail_fast ship" speed="6.43" length="9.47" shape="3602.43,17929.50 3601.97,17932.21 3602.45,17934.30 3603.87,17935.79 3606.23,17936.66"/>
    </edge>
    <edge id=":1434072700_6" function="internal">
        <lane id=":1434072700_6_0" index="0" disallow="pedestrian bicycle tram rail_urban rail rail_electric rail_fast ship" speed="6.41" length="9.04" shape="3585.21,17933.69 3587.53,17934.61 3588.96,17936.04 3589.51,17937.99 3589.17,17940.46"/>
    </edge>
    <edge id=":1434072703_0" function="internal">
        <lane id=":1434072703_0_0" index="0" disallow="pedestrian bicycle tram rail_urban rail rail_electric rail_fast ship" speed="16.67" length="11.20" shape="3430.29,18439.65 3426.80,18450.28"/>
        <lane id=":1434072703_0_1" index="1" disallow="pedestrian bicycle tram rail_urban rail rail_electric rail_fast ship" speed="16.67" length="11.20" shape="3433.33,18440.64 3429.84,18451.28"/>
        <lane id=":1434072703_0_2" index="2" disallow="pedestrian bicycle tram rail_urban rail rail_electric rail_fast ship" speed="16.67" length="11.20" shape="3436.37,18441.64 3432.88,18452.29"/>
        <lane id=":1434072703_0_3" index="3" disallow="pedestrian bicycle tram rail_urban rail rail_electric rail_fast ship" speed="16.67" length="11.20" shape="3439.42,18442.64 3435.92,18453.29"/>
    </edge>
    <edge id=":1434072703_4" function="internal">
        <lane id=":1434072703_4_0" index="0" disallow="pedestrian bicycle tram rail_urban rail rail_electric rail_fast ship" speed="6.33" length="9.04" shape="3439.42,18442.64 3438.98,18445.11 3439.47,18447.06 3440.88,18448.50 3443.21,18449.42"/>
    </edge>
    <edge id=":1434072707_0" function="internal">
        <lane id=":1434072707_0_0" index="0" disallow="pedestrian bicycle tram rail_urban rail rail_electric rail_fast ship" speed="16.67" length="10.96" shape="3506.72,18205.83 3503.20,18216.46"/>
        <lane id=":1434072707_0_1" index="1" disallow="pedestrian bicycle tram rail_urban rail rail_electric rail_fast ship" speed="16.67" length="10.96" shape="3509.73,18206.90 3506.26,18217.38"/>
        <lane id=":1434072707_0_2" index="2" disallow="pedestrian bicycle tram rail_urban rail rail_electric rail_fast ship" speed="16.67" length="10.96" shape="3512.75,18207.97 3509.33,18218.30"/>
        <lane id=":1434072707_0_3" index="3" disallow="pedestrian bicycle tram rail_urban rail rail_electric rail_fast ship" speed="16.67" length="10.96" shape="3515.76,18209.04 3512.39,18219.22"/>
    </edge>
    <edge id=":1434072707_4" function="internal">
        <lane id=":1434072707_4_0" index="0" disallow="pedestrian bicycle tram rail_urban rail rail_electric rail_fast ship" speed="7.44" length="11.44" shape="3519.31,18215.45 3515.48,18214.91 3512.54,18215.21 3510.49,18216.34 3509.33,18218.30"/>
        <lane id=":1434072707_4_1" index="1" disallow="pedestrian bicycle tram rail_urban rail rail_electric rail_fast ship" speed="6.62" length="8.84" shape="3519.31,18215.45 3516.84,18215.23 3514.87,18215.79 3513.38,18217.12 3512.39,18219.22"/>
    </edge>
    <edge id=":1434072709_0" function="internal">
        <lane id=":1434072709_0_0" index="0" disallow="pedestrian bicycle tram rail_urban rail rail_electric rail_fast ship" speed="16.67" length="11.21" shape="3622.15,17827.25 3619.00,17838.01"/>
        <lane id=":1434072709_0_1" index="1" disallow="pedestrian bicycle tram rail_urban rail rail_electric rail_fast ship" speed="16.67" length="11.21" shape="3625.22,17828.15 3622.07,17838.91"/>
        <lane id=":1434072709_0_2" index="2" disallow="pedestrian bicycle tram rail_urban rail rail_electric rail_fast ship" speed="16.67" length="11.21" shape="3628.29,17829.06 3625.14,17839.81"/>
        <lane id=":1434072709_0_3" index="3" disallow="pedestrian bicycle tram rail_urban rail rail_electric rail_fast ship" speed="16.67" length="11.21" shape="3631.36,17829.96 3628.21,17840.71"/>
    </edge>
    <edge id=":1434072709_4" function="internal">
        <lane id=":1434072709_4_0" index="0" disallow="pedestrian bicycle tram rail_urban rail rail_electric rail_fast ship" speed="6.48" length="9.03" shape="3635.16,17836.96 3632.71,17836.58 3630.74,17837.07 3629.24,17838.45 3628.21,17840.71"/>
    </edge>
    <edge id=":1533913594_0" function="internal">
        <lane id=":1533913594_0_0" index="0" disallow="tram rail_urban rail rail_electric rail_fast ship" speed="9.72" length="16.64" shape="4623.24,13749.53 4619.38,13749.48 4615.30,13748.23 4611.27,13746.42 4607.56,13744.70"/>
    </edge>